Version 4
SHEET 1 880 680
WIRE 128 128 48 128
WIRE 384 128 336 128
WIRE 48 160 48 128
WIRE 48 256 48 240
WIRE 192 256 48 256
WIRE 384 256 384 128
WIRE 384 256 192 256
WIRE 192 288 192 256
FLAG 192 288 0
SYMBOL AutoGenerated\\jj 224 128 R0
SYMATTR InstName U1
SYMBOL voltage 48 144 R0
WINDOW 3 24 44 Left 2
WINDOW 123 0 0 Left 0
WINDOW 39 0 0 Left 0
SYMATTR Value 1
SYMATTR InstName V1
TEXT 16 312 Left 2 !.dc V1 -10m 10m
