Version 4
SHEET 1 880 680
WIRE 48 64 -16 64
WIRE 80 64 48 64
WIRE 272 64 160 64
WIRE 480 64 272 64
WIRE 480 112 480 64
WIRE 272 144 272 64
WIRE -16 176 -16 144
WIRE 48 192 48 64
WIRE 208 192 48 192
WIRE -16 320 -16 256
WIRE 128 320 -16 320
WIRE 272 320 272 240
WIRE 272 320 128 320
WIRE 480 320 480 288
WIRE 480 320 272 320
WIRE 128 336 128 320
FLAG 128 336 0
SYMBOL npn 208 144 R0
SYMATTR InstName Q1
SYMATTR Value 2N2222
SYMBOL voltage -16 160 R0
WINDOW 123 0 0 Left 0
WINDOW 39 0 0 Left 0
SYMATTR InstName V1
SYMATTR Value 5
SYMBOL res -32 48 R0
SYMATTR InstName R1
SYMATTR Value 1
SYMBOL ind 64 80 R270
WINDOW 0 32 56 VTop 2
WINDOW 3 5 56 VBottom 2
SYMATTR InstName L1
SYMATTR Value 1
SYMBOL AutoGenerated\\memristorR1 480 192 R90
SYMATTR InstName U1
TEXT -50 360 Left 2 !.tran 0 1000m 0
