Version 4
SHEET 1 880 680
WIRE 128 128 48 128
WIRE 48 160 48 128
WIRE 48 256 48 240
WIRE 192 256 48 256
WIRE 336 256 336 128
WIRE 336 256 192 256
WIRE 192 288 192 256
WIRE 0 0 0 0
FLAG 192 288 0
SYMBOL AutoGenerated\\jj 224 128 R0
SYMATTR InstName U1
SYMBOL voltage 48 144 R0
SYMATTR InstName V1
