Version 4
SHEET 1 880 680
WIRE 16 112 -64 112
WIRE 96 128 96 112
WIRE 144 128 96 128
WIRE 368 128 320 128
WIRE -64 256 -64 192
WIRE 128 256 -64 256
WIRE 368 256 368 128
WIRE 368 256 128 256
WIRE 128 272 128 256
FLAG 128 272 0
SYMBOL AutoGenerated\\memR_TH 224 128 R0
SYMATTR InstName U1
SYMBOL voltage -64 96 R0
WINDOW 123 0 0 Left 0
WINDOW 39 0 0 Left 0
SYMATTR InstName V1
SYMATTR Value 5
SYMBOL res 112 96 R90
WINDOW 0 0 56 VBottom 2
WINDOW 3 32 56 VTop 2
SYMATTR InstName R1
SYMATTR Value 1
TEXT -98 296 Left 2 !.dc V1 -200m 200m
