Version 4
SHEET 1 880 680
WIRE 144 16 48 16
WIRE 176 16 144 16
WIRE 368 16 256 16
WIRE 528 16 368 16
WIRE 736 16 528 16
WIRE 736 48 736 16
WIRE 368 112 368 16
WIRE 528 112 528 16
WIRE 48 128 48 96
WIRE 144 160 144 16
WIRE 304 160 144 160
WIRE 48 304 48 208
WIRE 368 304 368 208
WIRE 368 304 48 304
WIRE 528 304 528 176
WIRE 528 304 368 304
WIRE 736 304 736 224
WIRE 736 304 528 304
WIRE 368 352 368 304
FLAG 368 352 0
SYMBOL voltage 48 112 R0
WINDOW 123 0 0 Left 0
WINDOW 39 0 0 Left 0
SYMATTR InstName V1
SYMATTR Value 1
SYMBOL res 32 0 R0
SYMATTR InstName R1
SYMATTR Value 0.1
SYMBOL ind 160 32 R270
WINDOW 0 32 56 VTop 2
WINDOW 3 5 56 VBottom 2
SYMATTR InstName L1
SYMATTR Value 1
SYMBOL npn 304 112 R0
SYMATTR InstName Q1
SYMATTR Value BC547C
SYMBOL cap 512 112 R0
SYMATTR InstName C1
SYMATTR Value 0.01
SYMBOL AutoGenerated\\memristorR1 736 128 R90
SYMATTR InstName U1
TEXT 14 314 Left 2 !.tran 0 10000m 0
