Version 4
SHEET 1 880 680
WIRE 160 48 32 48
WIRE 32 96 32 48
WIRE 160 128 160 48
WIRE 208 128 160 128
WIRE 416 128 384 128
WIRE 32 240 32 176
WIRE 208 240 32 240
WIRE 416 240 416 128
WIRE 416 240 208 240
WIRE 208 256 208 240
FLAG 208 256 0
SYMBOL voltage 32 80 R0
WINDOW 123 0 0 Left 0
WINDOW 39 0 0 Left 0
SYMATTR InstName V1
SYMATTR Value SINE(0 1 1)
SYMBOL AutoGenerated\\memristorR1 288 128 R0
SYMATTR InstName U1
TEXT 0 280 Left 2 !.tran 0 1000m 0
