Version 4
SHEET 1 880 680
WIRE 432 32 368 32
WIRE 288 64 240 64
WIRE 176 80 0 80
WIRE 0 96 0 80
WIRE 272 96 240 96
WIRE 368 96 368 32
WIRE 368 96 272 96
WIRE 272 160 272 96
WIRE 272 160 160 160
WIRE 288 176 288 64
WIRE 400 176 288 176
WIRE 0 208 0 176
WIRE 288 224 288 176
WIRE 288 224 240 224
WIRE 160 240 160 160
WIRE 176 240 160 240
WIRE 272 256 240 256
WIRE 272 288 272 256
WIRE 400 288 400 256
WIRE 400 288 272 288
WIRE 272 304 272 288
FLAG 272 304 0
FLAG 0 208 0
SYMBOL AutoGenerated\\SET_2 208 80 R0
SYMATTR InstName U1
SYMBOL AutoGenerated\\SET_2 208 240 R0
SYMATTR InstName U2
SYMBOL voltage 0 80 R0
WINDOW 123 0 0 Left 0
WINDOW 39 0 0 Left 0
SYMATTR InstName V1
SYMATTR Value 30m
SYMBOL voltage 400 160 R0
WINDOW 123 0 0 Left 0
WINDOW 39 0 0 Left 0
SYMATTR InstName V2
SYMATTR Value 30m
TEXT -34 328 Left 2 !.tran 0 10 0 0.01
