Version 4
SHEET 1 880 680
SYMBOL current 176 64 R0
WINDOW 123 0 0 Left 0
WINDOW 39 0 0 Left 0
SYMATTR InstName I1
SYMATTR Value ""
SYMBOL cap 16 112 R0
SYMATTR InstName C1
SYMBOL cap 160 208 R0
SYMATTR InstName C2
SYMBOL cap 320 112 R0
SYMATTR InstName C3
