Version 4
SHEET 1 880 680
WIRE 64 224 64 176
FLAG 64 224 0
SYMBOL voltage 64 80 R0
WINDOW 123 0 0 Left 0
WINDOW 39 0 0 Left 0
SYMATTR InstName V1
SYMATTR Value SINE(0 1 60)
TEXT -112 32 Left 2 !.tran {20/60}
