Version 4
SHEET 1 880 680
WIRE 352 80 288 80
WIRE 352 96 352 80
WIRE 128 112 32 112
WIRE 288 112 288 80
WIRE 288 112 240 112
WIRE 128 128 128 112
WIRE 176 128 128 128
WIRE 272 144 240 144
WIRE 272 208 272 144
WIRE 352 208 352 176
WIRE 32 240 32 192
FLAG 272 208 0
FLAG 352 208 0
FLAG 32 240 0
SYMBOL voltage 352 80 R0
WINDOW 123 0 0 Left 0
WINDOW 39 0 0 Left 0
SYMATTR InstName V1
SYMATTR Value PWL(0 -.03 100m .03)
SYMBOL voltage 32 96 R0
WINDOW 3 24 44 Left 2
WINDOW 123 0 0 Left 0
WINDOW 39 0 0 Left 0
SYMATTR Value 30m
SYMATTR InstName V2
SYMBOL AutoGenerated\\SET_2 208 128 R0
WINDOW 39 0 0 Invisible 0
SYMATTR InstName U1
SYMATTR SpiceLine pi=3.1415926535897932846 CF1=8
TEXT 0 264 Left 2 !.tran 0 1 0 0.001
