Version 4
SHEET 1 880 680
WIRE 160 112 -48 112
WIRE 448 112 240 112
WIRE 160 128 160 112
WIRE 176 128 160 128
WIRE 448 128 448 112
WIRE 272 144 240 144
WIRE -48 224 -48 192
WIRE 208 224 -48 224
WIRE 272 224 272 144
WIRE 272 224 208 224
WIRE 448 224 448 208
WIRE 448 224 272 224
WIRE 208 240 208 224
FLAG 208 240 0
SYMBOL voltage -48 96 R0
WINDOW 123 0 0 Left 0
WINDOW 39 24 124 Left 2
SYMATTR InstName V1
SYMATTR Value 30m
SYMBOL voltage 448 112 R0
WINDOW 123 0 0 Left 0
WINDOW 39 24 124 Left 2
SYMATTR InstName V2
SYMATTR Value 30m
SYMBOL AutoGenerated\\SET_2 208 128 R0
SYMATTR InstName U1
TEXT -82 264 Left 2 !.tran 0 1 0 0.001
