Version 4
SHEET 1 1084 680
WIRE 64 -16 -208 -16
WIRE 192 -16 64 -16
WIRE 416 -16 272 -16
WIRE 624 -16 416 -16
WIRE 64 0 64 -16
WIRE 624 16 624 -16
WIRE 704 16 624 16
WIRE 624 32 624 16
WIRE -208 48 -208 -16
WIRE -176 48 -208 48
WIRE 64 48 0 48
WIRE 800 48 800 32
WIRE 416 112 416 -16
WIRE 592 112 544 112
WIRE 64 128 64 48
WIRE 368 128 320 128
WIRE 576 160 544 160
WIRE 624 160 624 96
WIRE 720 160 624 160
WIRE 784 160 720 160
WIRE 800 160 800 128
WIRE 800 160 784 160
WIRE 368 176 336 176
WIRE 720 176 720 160
WIRE 592 192 592 112
WIRE 672 192 592 192
WIRE 576 240 576 160
WIRE 672 240 576 240
WIRE 544 272 544 240
WIRE 336 288 336 256
WIRE 64 352 64 208
WIRE 304 352 64 352
WIRE 416 352 416 192
WIRE 416 352 304 352
WIRE 720 352 720 256
WIRE 720 352 416 352
WIRE 784 352 784 160
WIRE 784 352 720 352
WIRE 800 352 784 352
WIRE 304 368 304 352
WIRE 0 0 0 0
FLAG 704 16 Vo
FLAG 304 368 0
FLAG 320 128 0
FLAG 544 112 0
FLAG 336 288 0
FLAG 544 272 0
SYMBOL voltage 64 112 R0
WINDOW 123 0 0 Left 0
WINDOW 39 0 0 Left 0
SYMATTR InstName V1
SYMATTR Value 100m
SYMBOL ind 176 0 R270
WINDOW 0 32 56 VTop 2
WINDOW 3 5 56 VBottom 2
SYMATTR InstName L1
SYMATTR Value 1e-7
SYMBOL cap 608 32 R0
SYMATTR InstName C1
SYMATTR Value 100µ
SYMBOL sw 416 96 R0
SYMATTR InstName S1
SYMBOL sw 720 160 R0
WINDOW 0 41 47 Left 2
SYMATTR InstName S2
SYMBOL voltage 336 160 R0
WINDOW 0 38 42 Left 2
WINDOW 3 38 70 Left 2
WINDOW 123 0 0 Left 0
WINDOW 39 0 0 Left 0
SYMATTR InstName V2
SYMATTR Value PWL(0 0.5 5m 0.5 {5m+1m} -0.5 {5m+5m+1n} .5)
SYMBOL voltage 544 144 R0
WINDOW 0 40 42 Left 2
WINDOW 3 -96 169 Left 2
WINDOW 123 0 0 Left 0
WINDOW 39 0 0 Left 0
SYMATTR InstName V3
SYMATTR Value PWL(0 -0.5 5m -0.5 {5m+1m} 0.5 {5m+5m+1n} -0.5)
SYMBOL voltage 800 32 R0
SYMATTR InstName V4
SYMATTR Value 1
SYMBOL AutoGenerated\\memristorR1 -96 48 R0
SYMATTR InstName U1
TEXT 680 -96 Left 2 !.model sw sw ron=1m roff=1g
TEXT 30 392 Left 2 !.tran 1000m
